PyDSS/api/src/tmp_pydss_project/project1/DSSfiles/41e17deb-dd30-4fdc-9265-c791677144a4_distribution_federate/Loads.dss
New Load.load_p1rlv4346_1 conn=wye bus1=p1rlv4346.1 kV=0.12 Vminpu=0.8 Vmaxpu=1.2 model=1 kW=0.94501 kvar=0.18990552329105911 Phases=1

New Load.load_p1rlv4346_2 conn=wye bus1=p1rlv4346.2 kV=0.12 Vminpu=0.8 Vmaxpu=1.2 model=1 kW=0.94501 kvar=0.18990552329105911 Phases=1

New Load.load_p1rlv4347_1 conn=wye bus1=p1rlv4347.1 kV=0.12 Vminpu=0.8 Vmaxpu=1.2 model=1 kW=0.2350025 kvar=0.04494240299069339 Phases=1

New Load.load_p1rlv4347_2 conn=wye bus1=p1rlv4347.2 kV=0.12 Vminpu=0.8 Vmaxpu=1.2 model=1 kW=0.2350025 kvar=0.04494240299069339 Phases=1

New Load.load_p1rlv4348_1 conn=wye bus1=p1rlv4348.1 kV=0.12 Vminpu=0.8 Vmaxpu=1.2 model=1 kW=1.585015 kvar=0.3201885531011673 Phases=1

New Load.load_p1rlv4348_2 conn=wye bus1=p1rlv4348.2 kV=0.12 Vminpu=0.8 Vmaxpu=1.2 model=1 kW=1.585015 kvar=0.3201885531011673 Phases=1

New Load.load_p1rlv4349_1 conn=wye bus1=p1rlv4349.1 kV=0.12 Vminpu=0.8 Vmaxpu=1.2 model=1 kW=1.07501 kvar=0.21997184965377958 Phases=1

New Load.load_p1rlv4349_2 conn=wye bus1=p1rlv4349.2 kV=0.12 Vminpu=0.8 Vmaxpu=1.2 model=1 kW=1.07501 kvar=0.21997184965377958 Phases=1

New Load.load_p1rlv4350_1 conn=wye bus1=p1rlv4350.1 kV=0.12 Vminpu=0.8 Vmaxpu=1.2 model=1 kW=0.705005 kvar=0.1449914657723998 Phases=1

New Load.load_p1rlv4350_2 conn=wye bus1=p1rlv4350.2 kV=0.12 Vminpu=0.8 Vmaxpu=1.2 model=1 kW=0.705005 kvar=0.1449914657723998 Phases=1

New Load.load_p1rlv4351_1 conn=wye bus1=p1rlv4351.1 kV=0.12 Vminpu=0.8 Vmaxpu=1.2 model=1 kW=1.12501 kvar=0.23020300330136328 Phases=1

New Load.load_p1rlv4351_2 conn=wye bus1=p1rlv4351.2 kV=0.12 Vminpu=0.8 Vmaxpu=1.2 model=1 kW=1.12501 kvar=0.23020300330136328 Phases=1

New Load.load_p1rlv4352_1 conn=wye bus1=p1rlv4352.1 kV=0.12 Vminpu=0.8 Vmaxpu=1.2 model=1 kW=0.90001 kvar=0.1850962320973859 Phases=1

New Load.load_p1rlv4352_2 conn=wye bus1=p1rlv4352.2 kV=0.12 Vminpu=0.8 Vmaxpu=1.2 model=1 kW=0.90001 kvar=0.1850962320973859 Phases=1

New Load.load_p1rlv4353_1 conn=wye bus1=p1rlv4353.1 kV=0.12 Vminpu=0.8 Vmaxpu=1.2 model=1 kW=0.550005 kvar=0.10994462467091208 Phases=1

New Load.load_p1rlv4353_2 conn=wye bus1=p1rlv4353.2 kV=0.12 Vminpu=0.8 Vmaxpu=1.2 model=1 kW=0.550005 kvar=0.10994462467091208 Phases=1

New Load.load_p1rlv4354_1 conn=wye bus1=p1rlv4354.1 kV=0.12 Vminpu=0.8 Vmaxpu=1.2 model=1 kW=0.625005 kvar=0.12493693719592258 Phases=1

New Load.load_p1rlv4354_2 conn=wye bus1=p1rlv4354.2 kV=0.12 Vminpu=0.8 Vmaxpu=1.2 model=1 kW=0.625005 kvar=0.12493693719592258 Phases=1

New Load.load_p1rlv4355_1 conn=wye bus1=p1rlv4355.1 kV=0.12 Vminpu=0.8 Vmaxpu=1.2 model=1 kW=0.80501 kvar=0.16514153045827676 Phases=1

New Load.load_p1rlv4355_2 conn=wye bus1=p1rlv4355.2 kV=0.12 Vminpu=0.8 Vmaxpu=1.2 model=1 kW=0.80501 kvar=0.16514153045827676 Phases=1

New Load.load_p1rlv4356_1 conn=wye bus1=p1rlv4356.1 kV=0.12 Vminpu=0.8 Vmaxpu=1.2 model=1 kW=0.535005 kvar=0.11002923262326189 Phases=1

New Load.load_p1rlv4356_2 conn=wye bus1=p1rlv4356.2 kV=0.12 Vminpu=0.8 Vmaxpu=1.2 model=1 kW=0.535005 kvar=0.11002923262326189 Phases=1

New Load.load_p1rlv4357_1 conn=wye bus1=p1rlv4357.1 kV=0.12 Vminpu=0.8 Vmaxpu=1.2 model=1 kW=0.740005 kvar=0.14987678380884176 Phases=1

New Load.load_p1rlv4357_2 conn=wye bus1=p1rlv4357.2 kV=0.12 Vminpu=0.8 Vmaxpu=1.2 model=1 kW=0.740005 kvar=0.14987678380884176 Phases=1

New Load.load_p1rlv4358_1 conn=wye bus1=p1rlv4358.1 kV=0.12 Vminpu=0.8 Vmaxpu=1.2 model=1 kW=0.3500035 kvar=0.06996482475796689 Phases=1

New Load.load_p1rlv4358_2 conn=wye bus1=p1rlv4358.2 kV=0.12 Vminpu=0.8 Vmaxpu=1.2 model=1 kW=0.3500035 kvar=0.06996482475796689 Phases=1

New Load.load_p1rlv4614_1 conn=wye bus1=p1rlv4614.1 kV=0.12 Vminpu=0.8 Vmaxpu=1.2 model=1 kW=1.04001 kvar=0.21009220550641156 Phases=1

New Load.load_p1rlv4614_2 conn=wye bus1=p1rlv4614.2 kV=0.12 Vminpu=0.8 Vmaxpu=1.2 model=1 kW=1.04001 kvar=0.21009220550641156 Phases=1

New Load.load_p1rlv4615_1 conn=wye bus1=p1rlv4615.1 kV=0.12 Vminpu=0.8 Vmaxpu=1.2 model=1 kW=1.480015 kvar=0.2997545802918128 Phases=1

New Load.load_p1rlv4615_2 conn=wye bus1=p1rlv4615.2 kV=0.12 Vminpu=0.8 Vmaxpu=1.2 model=1 kW=1.480015 kvar=0.2997545802918128 Phases=1

New Load.load_p1rlv4616 conn=wye bus1=p1rlv4616.1.2.3 kV=0.48 Vminpu=0.8 Vmaxpu=1.2 model=1 kW=51.68050000000001 kvar=10.49417311089566 Phases=3

New Load.load_p1rlv4617_1 conn=wye bus1=p1rlv4617.1 kV=0.12 Vminpu=0.8 Vmaxpu=1.2 model=1 kW=0.4350045 kvar=0.0899122736897623 Phases=1

New Load.load_p1rlv4617_2 conn=wye bus1=p1rlv4617.2 kV=0.12 Vminpu=0.8 Vmaxpu=1.2 model=1 kW=0.4350045 kvar=0.0899122736897623 Phases=1

New Load.load_p1rlv4618_1 conn=wye bus1=p1rlv4618.1 kV=0.12 Vminpu=0.8 Vmaxpu=1.2 model=1 kW=0.76501 kvar=0.154941167129414 Phases=1

New Load.load_p1rlv4618_2 conn=wye bus1=p1rlv4618.2 kV=0.12 Vminpu=0.8 Vmaxpu=1.2 model=1 kW=0.76501 kvar=0.154941167129414 Phases=1

New Load.load_p1rlv4619_1 conn=wye bus1=p1rlv4619.1 kV=0.12 Vminpu=0.8 Vmaxpu=1.2 model=1 kW=0.97501 kvar=0.19490206180013997 Phases=1

New Load.load_p1rlv4619_2 conn=wye bus1=p1rlv4619.2 kV=0.12 Vminpu=0.8 Vmaxpu=1.2 model=1 kW=0.97501 kvar=0.19490206180013997 Phases=1

New Load.load_p1rlv4620_1 conn=wye bus1=p1rlv4620.1 kV=0.12 Vminpu=0.8 Vmaxpu=1.2 model=1 kW=1.18001 kvar=0.24022797842622015 Phases=1

New Load.load_p1rlv4620_2 conn=wye bus1=p1rlv4620.2 kV=0.12 Vminpu=0.8 Vmaxpu=1.2 model=1 kW=1.18001 kvar=0.24022797842622015 Phases=1

New Load.load_p1rlv4621_1 conn=wye bus1=p1rlv4621.1 kV=0.12 Vminpu=0.8 Vmaxpu=1.2 model=1 kW=0.83001 kvar=0.16983919678061932 Phases=1

New Load.load_p1rlv4621_2 conn=wye bus1=p1rlv4621.2 kV=0.12 Vminpu=0.8 Vmaxpu=1.2 model=1 kW=0.83001 kvar=0.16983919678061932 Phases=1

New Load.load_p1rlv4622_1 conn=wye bus1=p1rlv4622.1 kV=0.12 Vminpu=0.8 Vmaxpu=1.2 model=1 kW=0.695005 kvar=0.14003207787879351 Phases=1

New Load.load_p1rlv4622_2 conn=wye bus1=p1rlv4622.2 kV=0.12 Vminpu=0.8 Vmaxpu=1.2 model=1 kW=0.695005 kvar=0.14003207787879351 Phases=1

New Load.load_p1rlv4623_1 conn=wye bus1=p1rlv4623.1 kV=0.12 Vminpu=0.8 Vmaxpu=1.2 model=1 kW=0.94501 kvar=0.18990552329105911 Phases=1

New Load.load_p1rlv4623_2 conn=wye bus1=p1rlv4623.2 kV=0.12 Vminpu=0.8 Vmaxpu=1.2 model=1 kW=0.94501 kvar=0.18990552329105911 Phases=1

New Load.load_p1rlv4624_1 conn=wye bus1=p1rlv4624.1 kV=0.12 Vminpu=0.8 Vmaxpu=1.2 model=1 kW=1.09501 kvar=0.22004893816884757 Phases=1

New Load.load_p1rlv4624_2 conn=wye bus1=p1rlv4624.2 kV=0.12 Vminpu=0.8 Vmaxpu=1.2 model=1 kW=1.09501 kvar=0.22004893816884757 Phases=1

New Load.load_p1rlv4625_1 conn=wye bus1=p1rlv4625.1 kV=0.12 Vminpu=0.8 Vmaxpu=1.2 model=1 kW=0.6600050000000001 kvar=0.13505225126346992 Phases=1

New Load.load_p1rlv4625_2 conn=wye bus1=p1rlv4625.2 kV=0.12 Vminpu=0.8 Vmaxpu=1.2 model=1 kW=0.6600050000000001 kvar=0.13505225126346992 Phases=1

New Load.load_p1rlv4626_1 conn=wye bus1=p1rlv4626.1 kV=0.12 Vminpu=0.8 Vmaxpu=1.2 model=1 kW=0.6600050000000001 kvar=0.13505225126346992 Phases=1

New Load.load_p1rlv4626_2 conn=wye bus1=p1rlv4626.2 kV=0.12 Vminpu=0.8 Vmaxpu=1.2 model=1 kW=0.6600050000000001 kvar=0.13505225126346992 Phases=1

New Load.load_p1rlv4627_1 conn=wye bus1=p1rlv4627.1 kV=0.12 Vminpu=0.8 Vmaxpu=1.2 model=1 kW=0.605005 kvar=0.12505014348972168 Phases=1

New Load.load_p1rlv4627_2 conn=wye bus1=p1rlv4627.2 kV=0.12 Vminpu=0.8 Vmaxpu=1.2 model=1 kW=0.605005 kvar=0.12505014348972168 Phases=1

New Load.load_p1rlv4628_1 conn=wye bus1=p1rlv4628.1 kV=0.12 Vminpu=0.8 Vmaxpu=1.2 model=1 kW=0.84001 kvar=0.17013127906874298 Phases=1

New Load.load_p1rlv4628_2 conn=wye bus1=p1rlv4628.2 kV=0.12 Vminpu=0.8 Vmaxpu=1.2 model=1 kW=0.84001 kvar=0.17013127906874298 Phases=1

New Load.load_p1rlv4629_1 conn=wye bus1=p1rlv4629.1 kV=0.12 Vminpu=0.8 Vmaxpu=1.2 model=1 kW=0.94501 kvar=0.18990552329105911 Phases=1

New Load.load_p1rlv4629_2 conn=wye bus1=p1rlv4629.2 kV=0.12 Vminpu=0.8 Vmaxpu=1.2 model=1 kW=0.94501 kvar=0.18990552329105911 Phases=1

New Load.load_p1rlv4630_1 conn=wye bus1=p1rlv4630.1 kV=0.12 Vminpu=0.8 Vmaxpu=1.2 model=1 kW=0.685005 kvar=0.14016782808726178 Phases=1

New Load.load_p1rlv4630_2 conn=wye bus1=p1rlv4630.2 kV=0.12 Vminpu=0.8 Vmaxpu=1.2 model=1 kW=0.685005 kvar=0.14016782808726178 Phases=1

New Load.load_p1rlv4631_1 conn=wye bus1=p1rlv4631.1 kV=0.12 Vminpu=0.8 Vmaxpu=1.2 model=1 kW=0.600005 kvar=0.11993949968758576 Phases=1

New Load.load_p1rlv4631_2 conn=wye bus1=p1rlv4631.2 kV=0.12 Vminpu=0.8 Vmaxpu=1.2 model=1 kW=0.600005 kvar=0.11993949968758576 Phases=1

New Load.load_p1rlv4632_1 conn=wye bus1=p1rlv4632.1 kV=0.12 Vminpu=0.8 Vmaxpu=1.2 model=1 kW=0.89501 kvar=0.17985771833179628 Phases=1

New Load.load_p1rlv4632_2 conn=wye bus1=p1rlv4632.2 kV=0.12 Vminpu=0.8 Vmaxpu=1.2 model=1 kW=0.89501 kvar=0.17985771833179628 Phases=1

New Load.load_p1rlv4633_1 conn=wye bus1=p1rlv4633.1 kV=0.12 Vminpu=0.8 Vmaxpu=1.2 model=1 kW=0.84001 kvar=0.17013127906874298 Phases=1

New Load.load_p1rlv4633_2 conn=wye bus1=p1rlv4633.2 kV=0.12 Vminpu=0.8 Vmaxpu=1.2 model=1 kW=0.84001 kvar=0.17013127906874298 Phases=1

New Load.load_p1rlv4634_1 conn=wye bus1=p1rlv4634.1 kV=0.12 Vminpu=0.8 Vmaxpu=1.2 model=1 kW=0.8650100000000001 kvar=0.175194649715186 Phases=1

New Load.load_p1rlv4634_2 conn=wye bus1=p1rlv4634.2 kV=0.12 Vminpu=0.8 Vmaxpu=1.2 model=1 kW=0.8650100000000001 kvar=0.175194649715186 Phases=1

New Load.load_p1rlv4635_1 conn=wye bus1=p1rlv4635.1 kV=0.12 Vminpu=0.8 Vmaxpu=1.2 model=1 kW=0.8600100000000002 kvar=0.17508196009045146 Phases=1

New Load.load_p1rlv4635_2 conn=wye bus1=p1rlv4635.2 kV=0.12 Vminpu=0.8 Vmaxpu=1.2 model=1 kW=0.8600100000000002 kvar=0.17508196009045146 Phases=1

New Load.load_p1rlv4636_1 conn=wye bus1=p1rlv4636.1 kV=0.12 Vminpu=0.8 Vmaxpu=1.2 model=1 kW=0.680005 kvar=0.13984996089752658 Phases=1

New Load.load_p1rlv4636_2 conn=wye bus1=p1rlv4636.2 kV=0.12 Vminpu=0.8 Vmaxpu=1.2 model=1 kW=0.680005 kvar=0.13984996089752658 Phases=1

New Load.load_p1rlv4637_1 conn=wye bus1=p1rlv4637.1 kV=0.12 Vminpu=0.8 Vmaxpu=1.2 model=1 kW=1.475015 kvar=0.30028548198604343 Phases=1

New Load.load_p1rlv4637_2 conn=wye bus1=p1rlv4637.2 kV=0.12 Vminpu=0.8 Vmaxpu=1.2 model=1 kW=1.475015 kvar=0.30028548198604343 Phases=1

New Load.load_p1rlv4638_1 conn=wye bus1=p1rlv4638.1 kV=0.12 Vminpu=0.8 Vmaxpu=1.2 model=1 kW=0.78501 kvar=0.1598133620430056 Phases=1

New Load.load_p1rlv4638_2 conn=wye bus1=p1rlv4638.2 kV=0.12 Vminpu=0.8 Vmaxpu=1.2 model=1 kW=0.78501 kvar=0.1598133620430056 Phases=1

New Load.load_p1rlv4639_1 conn=wye bus1=p1rlv4639.1 kV=0.12 Vminpu=0.8 Vmaxpu=1.2 model=1 kW=0.79001 kvar=0.16000453777585702 Phases=1

New Load.load_p1rlv4639_2 conn=wye bus1=p1rlv4639.2 kV=0.12 Vminpu=0.8 Vmaxpu=1.2 model=1 kW=0.79001 kvar=0.16000453777585702 Phases=1

New Load.load_p1rlv4640_1 conn=wye bus1=p1rlv4640.1 kV=0.12 Vminpu=0.8 Vmaxpu=1.2 model=1 kW=0.93001 kvar=0.18981762182034304 Phases=1

New Load.load_p1rlv4640_2 conn=wye bus1=p1rlv4640.2 kV=0.12 Vminpu=0.8 Vmaxpu=1.2 model=1 kW=0.93001 kvar=0.18981762182034304 Phases=1

New Load.load_p1rlv4641_1 conn=wye bus1=p1rlv4641.1 kV=0.12 Vminpu=0.8 Vmaxpu=1.2 model=1 kW=0.520005 kvar=0.10504610275320578 Phases=1

New Load.load_p1rlv4641_2 conn=wye bus1=p1rlv4641.2 kV=0.12 Vminpu=0.8 Vmaxpu=1.2 model=1 kW=0.520005 kvar=0.10504610275320578 Phases=1

New Load.load_p1rlv4642_1 conn=wye bus1=p1rlv4642.1 kV=0.12 Vminpu=0.8 Vmaxpu=1.2 model=1 kW=1.03501 kvar=0.2101677443428008 Phases=1

New Load.load_p1rlv4642_2 conn=wye bus1=p1rlv4642.2 kV=0.12 Vminpu=0.8 Vmaxpu=1.2 model=1 kW=1.03501 kvar=0.2101677443428008 Phases=1

New Load.load_p1rlv4643_1 conn=wye bus1=p1rlv4643.1 kV=0.12 Vminpu=0.8 Vmaxpu=1.2 model=1 kW=1.360015 kvar=0.27473634952721826 Phases=1

New Load.load_p1rlv4643_2 conn=wye bus1=p1rlv4643.2 kV=0.12 Vminpu=0.8 Vmaxpu=1.2 model=1 kW=1.360015 kvar=0.27473634952721826 Phases=1

New Load.load_p1rlv4644_1 conn=wye bus1=p1rlv4644.1 kV=0.12 Vminpu=0.8 Vmaxpu=1.2 model=1 kW=0.625005 kvar=0.12493693719592258 Phases=1

New Load.load_p1rlv4644_2 conn=wye bus1=p1rlv4644.2 kV=0.12 Vminpu=0.8 Vmaxpu=1.2 model=1 kW=0.625005 kvar=0.12493693719592258 Phases=1

New Load.load_p1rlv4645_1 conn=wye bus1=p1rlv4645.1 kV=0.12 Vminpu=0.8 Vmaxpu=1.2 model=1 kW=1.22001 kvar=0.25027554760115056 Phases=1

New Load.load_p1rlv4645_2 conn=wye bus1=p1rlv4645.2 kV=0.12 Vminpu=0.8 Vmaxpu=1.2 model=1 kW=1.22001 kvar=0.25027554760115056 Phases=1

New Load.load_p1rlv4646_1 conn=wye bus1=p1rlv4646.1 kV=0.12 Vminpu=0.8 Vmaxpu=1.2 model=1 kW=0.97001 kvar=0.19492942577069053 Phases=1

New Load.load_p1rlv4646_2 conn=wye bus1=p1rlv4646.2 kV=0.12 Vminpu=0.8 Vmaxpu=1.2 model=1 kW=0.97001 kvar=0.19492942577069053 Phases=1

New Load.load_p1rlv4647_1 conn=wye bus1=p1rlv4647.1 kV=0.12 Vminpu=0.8 Vmaxpu=1.2 model=1 kW=1.335015 kvar=0.26968610468566845 Phases=1

New Load.load_p1rlv4647_2 conn=wye bus1=p1rlv4647.2 kV=0.12 Vminpu=0.8 Vmaxpu=1.2 model=1 kW=1.335015 kvar=0.26968610468566845 Phases=1

New Load.load_p1rlv4648_1 conn=wye bus1=p1rlv4648.1 kV=0.12 Vminpu=0.8 Vmaxpu=1.2 model=1 kW=0.4250045 kvar=0.08495733718047772 Phases=1

New Load.load_p1rlv4648_2 conn=wye bus1=p1rlv4648.2 kV=0.12 Vminpu=0.8 Vmaxpu=1.2 model=1 kW=0.4250045 kvar=0.08495733718047772 Phases=1

New Load.load_p1rlv4649_1 conn=wye bus1=p1rlv4649.1 kV=0.12 Vminpu=0.8 Vmaxpu=1.2 model=1 kW=0.600005 kvar=0.11993949968758576 Phases=1

New Load.load_p1rlv4649_2 conn=wye bus1=p1rlv4649.2 kV=0.12 Vminpu=0.8 Vmaxpu=1.2 model=1 kW=0.600005 kvar=0.11993949968758576 Phases=1

New Load.load_p1rlv4650_1 conn=wye bus1=p1rlv4650.1 kV=0.12 Vminpu=0.8 Vmaxpu=1.2 model=1 kW=0.720005 kvar=0.14506916674429784 Phases=1

New Load.load_p1rlv4650_2 conn=wye bus1=p1rlv4650.2 kV=0.12 Vminpu=0.8 Vmaxpu=1.2 model=1 kW=0.720005 kvar=0.14506916674429784 Phases=1

New Load.load_p1rlv4651_1 conn=wye bus1=p1rlv4651.1 kV=0.12 Vminpu=0.8 Vmaxpu=1.2 model=1 kW=0.580005 kvar=0.11501512679758837 Phases=1

New Load.load_p1rlv4651_2 conn=wye bus1=p1rlv4651.2 kV=0.12 Vminpu=0.8 Vmaxpu=1.2 model=1 kW=0.580005 kvar=0.11501512679758837 Phases=1

New Load.load_p1rlv4652_1 conn=wye bus1=p1rlv4652.1 kV=0.12 Vminpu=0.8 Vmaxpu=1.2 model=1 kW=0.96001 kvar=0.19493834479525043 Phases=1

New Load.load_p1rlv4652_2 conn=wye bus1=p1rlv4652.2 kV=0.12 Vminpu=0.8 Vmaxpu=1.2 model=1 kW=0.96001 kvar=0.19493834479525043 Phases=1

New Load.load_p1rlv4653_1 conn=wye bus1=p1rlv4653.1 kV=0.12 Vminpu=0.8 Vmaxpu=1.2 model=1 kW=0.605005 kvar=0.12505014348972168 Phases=1

New Load.load_p1rlv4653_2 conn=wye bus1=p1rlv4653.2 kV=0.12 Vminpu=0.8 Vmaxpu=1.2 model=1 kW=0.605005 kvar=0.12505014348972168 Phases=1

New Load.load_p1rlv4654_1 conn=wye bus1=p1rlv4654.1 kV=0.12 Vminpu=0.8 Vmaxpu=1.2 model=1 kW=0.82001 kvar=0.16478601089290207 Phases=1

New Load.load_p1rlv4654_2 conn=wye bus1=p1rlv4654.2 kV=0.12 Vminpu=0.8 Vmaxpu=1.2 model=1 kW=0.82001 kvar=0.16478601089290207 Phases=1

New Load.load_p1rlv4655_1 conn=wye bus1=p1rlv4655.1 kV=0.12 Vminpu=0.8 Vmaxpu=1.2 model=1 kW=1.22001 kvar=0.24516845056700462 Phases=1

New Load.load_p1rlv4655_2 conn=wye bus1=p1rlv4655.2 kV=0.12 Vminpu=0.8 Vmaxpu=1.2 model=1 kW=1.22001 kvar=0.24516845056700462 Phases=1

New Load.load_p1rlv4656_1 conn=wye bus1=p1rlv4656.1 kV=0.12 Vminpu=0.8 Vmaxpu=1.2 model=1 kW=1.14501 kvar=0.23488988185243842 Phases=1

New Load.load_p1rlv4656_2 conn=wye bus1=p1rlv4656.2 kV=0.12 Vminpu=0.8 Vmaxpu=1.2 model=1 kW=1.14501 kvar=0.23488988185243842 Phases=1

New Load.load_p1rlv4657_1 conn=wye bus1=p1rlv4657.1 kV=0.12 Vminpu=0.8 Vmaxpu=1.2 model=1 kW=0.705005 kvar=0.1449914657723998 Phases=1

New Load.load_p1rlv4657_2 conn=wye bus1=p1rlv4657.2 kV=0.12 Vminpu=0.8 Vmaxpu=1.2 model=1 kW=0.705005 kvar=0.1449914657723998 Phases=1

New Load.load_p1rlv4658_1 conn=wye bus1=p1rlv4658.1 kV=0.12 Vminpu=0.8 Vmaxpu=1.2 model=1 kW=0.79001 kvar=0.16000453777585702 Phases=1

New Load.load_p1rlv4658_2 conn=wye bus1=p1rlv4658.2 kV=0.12 Vminpu=0.8 Vmaxpu=1.2 model=1 kW=0.79001 kvar=0.16000453777585702 Phases=1

New Load.load_p1rlv4659_1 conn=wye bus1=p1rlv4659.1 kV=0.12 Vminpu=0.8 Vmaxpu=1.2 model=1 kW=0.98001 kvar=0.20002276057263293 Phases=1

New Load.load_p1rlv4659_2 conn=wye bus1=p1rlv4659.2 kV=0.12 Vminpu=0.8 Vmaxpu=1.2 model=1 kW=0.98001 kvar=0.20002276057263293 Phases=1

New Load.load_p1rlv4660_1 conn=wye bus1=p1rlv4660.1 kV=0.12 Vminpu=0.8 Vmaxpu=1.2 model=1 kW=1.485015 kvar=0.29998757373496765 Phases=1

New Load.load_p1rlv4660_2 conn=wye bus1=p1rlv4660.2 kV=0.12 Vminpu=0.8 Vmaxpu=1.2 model=1 kW=1.485015 kvar=0.29998757373496765 Phases=1

New Load.load_p1rlv4661_1 conn=wye bus1=p1rlv4661.1 kV=0.12 Vminpu=0.8 Vmaxpu=1.2 model=1 kW=0.395004 kvar=0.08000206635310265 Phases=1

New Load.load_p1rlv4661_2 conn=wye bus1=p1rlv4661.2 kV=0.12 Vminpu=0.8 Vmaxpu=1.2 model=1 kW=0.395004 kvar=0.08000206635310265 Phases=1

New Load.load_p1rlv4662_1 conn=wye bus1=p1rlv4662.1 kV=0.12 Vminpu=0.8 Vmaxpu=1.2 model=1 kW=0.395004 kvar=0.08000206635310265 Phases=1

New Load.load_p1rlv4662_2 conn=wye bus1=p1rlv4662.2 kV=0.12 Vminpu=0.8 Vmaxpu=1.2 model=1 kW=0.395004 kvar=0.08000206635310265 Phases=1

New Load.load_p1rlv4663_1 conn=wye bus1=p1rlv4663.1 kV=0.12 Vminpu=0.8 Vmaxpu=1.2 model=1 kW=0.575005 kvar=0.1149420621792489 Phases=1

New Load.load_p1rlv4663_2 conn=wye bus1=p1rlv4663.2 kV=0.12 Vminpu=0.8 Vmaxpu=1.2 model=1 kW=0.575005 kvar=0.1149420621792489 Phases=1

New Load.load_p1rlv4664_1 conn=wye bus1=p1rlv4664.1 kV=0.12 Vminpu=0.8 Vmaxpu=1.2 model=1 kW=0.75001 kvar=0.14992512422510845 Phases=1

New Load.load_p1rlv4664_2 conn=wye bus1=p1rlv4664.2 kV=0.12 Vminpu=0.8 Vmaxpu=1.2 model=1 kW=0.75001 kvar=0.14992512422510845 Phases=1

New Load.load_p1rlv4665_1 conn=wye bus1=p1rlv4665.1 kV=0.12 Vminpu=0.8 Vmaxpu=1.2 model=1 kW=0.96501 kvar=0.19494147098176193 Phases=1

New Load.load_p1rlv4665_2 conn=wye bus1=p1rlv4665.2 kV=0.12 Vminpu=0.8 Vmaxpu=1.2 model=1 kW=0.96501 kvar=0.19494147098176193 Phases=1

New Load.load_p1rlv4666_1 conn=wye bus1=p1rlv4666.1 kV=0.12 Vminpu=0.8 Vmaxpu=1.2 model=1 kW=0.75001 kvar=0.14992512422510845 Phases=1

New Load.load_p1rlv4666_2 conn=wye bus1=p1rlv4666.2 kV=0.12 Vminpu=0.8 Vmaxpu=1.2 model=1 kW=0.75001 kvar=0.14992512422510845 Phases=1

New Load.load_p1rlv4667_1 conn=wye bus1=p1rlv4667.1 kV=0.12 Vminpu=0.8 Vmaxpu=1.2 model=1 kW=1.24001 kvar=0.249841622564561 Phases=1

New Load.load_p1rlv4667_2 conn=wye bus1=p1rlv4667.2 kV=0.12 Vminpu=0.8 Vmaxpu=1.2 model=1 kW=1.24001 kvar=0.249841622564561 Phases=1

New Load.load_p1rlv4668_1 conn=wye bus1=p1rlv4668.1 kV=0.12 Vminpu=0.8 Vmaxpu=1.2 model=1 kW=1.2750150000000002 kvar=0.2602340997250187 Phases=1

New Load.load_p1rlv4668_2 conn=wye bus1=p1rlv4668.2 kV=0.12 Vminpu=0.8 Vmaxpu=1.2 model=1 kW=1.2750150000000002 kvar=0.2602340997250187 Phases=1

New Load.load_p1rlv4669_1 conn=wye bus1=p1rlv4669.1 kV=0.12 Vminpu=0.8 Vmaxpu=1.2 model=1 kW=1.23001 kvar=0.24976418316643162 Phases=1

New Load.load_p1rlv4669_2 conn=wye bus1=p1rlv4669.2 kV=0.12 Vminpu=0.8 Vmaxpu=1.2 model=1 kW=1.23001 kvar=0.24976418316643162 Phases=1

New Load.load_p1rlv4670_1 conn=wye bus1=p1rlv4670.1 kV=0.12 Vminpu=0.8 Vmaxpu=1.2 model=1 kW=0.79501 kvar=0.1601814407585839 Phases=1

New Load.load_p1rlv4670_2 conn=wye bus1=p1rlv4670.2 kV=0.12 Vminpu=0.8 Vmaxpu=1.2 model=1 kW=0.79501 kvar=0.1601814407585839 Phases=1

New Load.load_p1rlv4671_1 conn=wye bus1=p1rlv4671.1 kV=0.12 Vminpu=0.8 Vmaxpu=1.2 model=1 kW=0.620005 kvar=0.1249208112822805 Phases=1

New Load.load_p1rlv4671_2 conn=wye bus1=p1rlv4671.2 kV=0.12 Vminpu=0.8 Vmaxpu=1.2 model=1 kW=0.620005 kvar=0.1249208112822805 Phases=1

New Load.load_p1rlv4672_1 conn=wye bus1=p1rlv4672.1 kV=0.12 Vminpu=0.8 Vmaxpu=1.2 model=1 kW=0.690005 kvar=0.14011149113076612 Phases=1

New Load.load_p1rlv4672_2 conn=wye bus1=p1rlv4672.2 kV=0.12 Vminpu=0.8 Vmaxpu=1.2 model=1 kW=0.690005 kvar=0.14011149113076612 Phases=1

New Load.load_p1rlv4673_1 conn=wye bus1=p1rlv4673.1 kV=0.12 Vminpu=0.8 Vmaxpu=1.2 model=1 kW=0.630005 kvar=0.12493013846107302 Phases=1

New Load.load_p1rlv4673_2 conn=wye bus1=p1rlv4673.2 kV=0.12 Vminpu=0.8 Vmaxpu=1.2 model=1 kW=0.630005 kvar=0.12493013846107302 Phases=1

New Load.load_p1rlv4674_1 conn=wye bus1=p1rlv4674.1 kV=0.12 Vminpu=0.8 Vmaxpu=1.2 model=1 kW=0.84501 kvar=0.16980991337253348 Phases=1

New Load.load_p1rlv4674_2 conn=wye bus1=p1rlv4674.2 kV=0.12 Vminpu=0.8 Vmaxpu=1.2 model=1 kW=0.84501 kvar=0.16980991337253348 Phases=1

New Load.load_p1rlv4675_1 conn=wye bus1=p1rlv4675.1 kV=0.12 Vminpu=0.8 Vmaxpu=1.2 model=1 kW=0.85001 kvar=0.17481322234763946 Phases=1

New Load.load_p1rlv4675_2 conn=wye bus1=p1rlv4675.2 kV=0.12 Vminpu=0.8 Vmaxpu=1.2 model=1 kW=0.85001 kvar=0.17481322234763946 Phases=1

New Load.load_p1rlv4676_1 conn=wye bus1=p1rlv4676.1 kV=0.12 Vminpu=0.8 Vmaxpu=1.2 model=1 kW=1.565015 kvar=0.31532478523389046 Phases=1

New Load.load_p1rlv4676_2 conn=wye bus1=p1rlv4676.2 kV=0.12 Vminpu=0.8 Vmaxpu=1.2 model=1 kW=1.565015 kvar=0.31532478523389046 Phases=1

New Load.load_p1rlv4677_1 conn=wye bus1=p1rlv4677.1 kV=0.12 Vminpu=0.8 Vmaxpu=1.2 model=1 kW=1.310015 kvar=0.26532365989600043 Phases=1

New Load.load_p1rlv4677_2 conn=wye bus1=p1rlv4677.2 kV=0.12 Vminpu=0.8 Vmaxpu=1.2 model=1 kW=1.310015 kvar=0.26532365989600043 Phases=1

New Load.load_p1rlv4678_1 conn=wye bus1=p1rlv4678.1 kV=0.12 Vminpu=0.8 Vmaxpu=1.2 model=1 kW=0.570005 kvar=0.11514659243630554 Phases=1

New Load.load_p1rlv4678_2 conn=wye bus1=p1rlv4678.2 kV=0.12 Vminpu=0.8 Vmaxpu=1.2 model=1 kW=0.570005 kvar=0.11514659243630554 Phases=1

New Load.load_p1rlv4679_1 conn=wye bus1=p1rlv4679.1 kV=0.12 Vminpu=0.8 Vmaxpu=1.2 model=1 kW=0.695005 kvar=0.14003207787879351 Phases=1

New Load.load_p1rlv4679_2 conn=wye bus1=p1rlv4679.2 kV=0.12 Vminpu=0.8 Vmaxpu=1.2 model=1 kW=0.695005 kvar=0.14003207787879351 Phases=1

New Load.load_p1rlv4680_1 conn=wye bus1=p1rlv4680.1 kV=0.12 Vminpu=0.8 Vmaxpu=1.2 model=1 kW=0.91001 kvar=0.18478541176355026 Phases=1

New Load.load_p1rlv4680_2 conn=wye bus1=p1rlv4680.2 kV=0.12 Vminpu=0.8 Vmaxpu=1.2 model=1 kW=0.91001 kvar=0.18478541176355026 Phases=1

New Load.load_p1rlv4681_1 conn=wye bus1=p1rlv4681.1 kV=0.12 Vminpu=0.8 Vmaxpu=1.2 model=1 kW=1.21501 kvar=0.24480453369905666 Phases=1

New Load.load_p1rlv4681_2 conn=wye bus1=p1rlv4681.2 kV=0.12 Vminpu=0.8 Vmaxpu=1.2 model=1 kW=1.21501 kvar=0.24480453369905666 Phases=1

New Load.load_p1rlv4682_1 conn=wye bus1=p1rlv4682.1 kV=0.12 Vminpu=0.8 Vmaxpu=1.2 model=1 kW=1.260015 kvar=0.2551969186031145 Phases=1

New Load.load_p1rlv4682_2 conn=wye bus1=p1rlv4682.2 kV=0.12 Vminpu=0.8 Vmaxpu=1.2 model=1 kW=1.260015 kvar=0.2551969186031145 Phases=1

New Load.load_p1rlv4683_1 conn=wye bus1=p1rlv4683.1 kV=0.12 Vminpu=0.8 Vmaxpu=1.2 model=1 kW=1.580015 kvar=0.3200080628775847 Phases=1

New Load.load_p1rlv4683_2 conn=wye bus1=p1rlv4683.2 kV=0.12 Vminpu=0.8 Vmaxpu=1.2 model=1 kW=1.580015 kvar=0.3200080628775847 Phases=1

New Load.load_p1rlv4684_1 conn=wye bus1=p1rlv4684.1 kV=0.12 Vminpu=0.8 Vmaxpu=1.2 model=1 kW=0.84501 kvar=0.16980991337253348 Phases=1

New Load.load_p1rlv4684_2 conn=wye bus1=p1rlv4684.2 kV=0.12 Vminpu=0.8 Vmaxpu=1.2 model=1 kW=0.84501 kvar=0.16980991337253348 Phases=1

New Load.load_p1rlv4685_1 conn=wye bus1=p1rlv4685.1 kV=0.12 Vminpu=0.8 Vmaxpu=1.2 model=1 kW=1.520015 kvar=0.3102392796112393 Phases=1

New Load.load_p1rlv4685_2 conn=wye bus1=p1rlv4685.2 kV=0.12 Vminpu=0.8 Vmaxpu=1.2 model=1 kW=1.520015 kvar=0.3102392796112393 Phases=1

New Load.load_p1rlv4686_1 conn=wye bus1=p1rlv4686.1 kV=0.12 Vminpu=0.8 Vmaxpu=1.2 model=1 kW=0.76001 kvar=0.15512015006255728 Phases=1

New Load.load_p1rlv4686_2 conn=wye bus1=p1rlv4686.2 kV=0.12 Vminpu=0.8 Vmaxpu=1.2 model=1 kW=0.76001 kvar=0.15512015006255728 Phases=1

New Load.load_p1rlv4687_1 conn=wye bus1=p1rlv4687.1 kV=0.12 Vminpu=0.8 Vmaxpu=1.2 model=1 kW=0.680005 kvar=0.13984996089752658 Phases=1

New Load.load_p1rlv4687_2 conn=wye bus1=p1rlv4687.2 kV=0.12 Vminpu=0.8 Vmaxpu=1.2 model=1 kW=0.680005 kvar=0.13984996089752658 Phases=1

New Load.load_p1rlv4816_1 conn=wye bus1=p1rlv4816.1 kV=0.12 Vminpu=0.8 Vmaxpu=1.2 model=1 kW=8.760100000000001 kvar=1.7788141730199412 Phases=1

New Load.load_p1rlv4816_2 conn=wye bus1=p1rlv4816.2 kV=0.12 Vminpu=0.8 Vmaxpu=1.2 model=1 kW=8.760100000000001 kvar=1.7788141730199412 Phases=1

New Load.load_p1rlv4817_1 conn=wye bus1=p1rlv4817.1 kV=0.12 Vminpu=0.8 Vmaxpu=1.2 model=1 kW=4.78505 kvar=0.9691392684704808 Phases=1

New Load.load_p1rlv4817_2 conn=wye bus1=p1rlv4817.2 kV=0.12 Vminpu=0.8 Vmaxpu=1.2 model=1 kW=4.78505 kvar=0.9691392684704808 Phases=1

New Load.load_p1rlv4818 conn=wye bus1=p1rlv4818.1.2.3 kV=0.48 Vminpu=0.8 Vmaxpu=1.2 model=1 kW=20.2002 kvar=4.101825556539013 Phases=3

New Load.load_p1rlv4819_1 conn=wye bus1=p1rlv4819.1 kV=0.12 Vminpu=0.8 Vmaxpu=1.2 model=1 kW=3.09503 kvar=0.6300902535304821 Phases=1

...